*PART
$#                                                                         title
boxsolid_1
$#     pid     secid       mid     eosid      hgid      grav    adpopt      tmid
         1         1         1         0         0         0         0         0
*MAT_USER_DEFINED_MATERIAL_MODELS_TITLE
umat43_1
$#     mid        ro        mt       lmc       nhv    iortho     ibulk        ig
         1     0.027        43        16       270         0         3         4
$#   ivect     ifail    itherm    ihyper      ieos      lmca    unused    unused
         0         0         0         1         0         0                    
$#      p1        p2        p3        p4        p5        p6        p7        p8
     70000       0.3  58333.33  26923.08     0.001      42.0      0.02     240.0
$#      p1        p2        p3        p4        p5        p6        p7        p8
      78.0       0.0       1.4       0.1       0.0       0.0       1.0       0.0
*PART
$#                                                                         title
boxsolid_2
$#     pid     secid       mid     eosid      hgid      grav    adpopt      tmid
         2         1         2         0         0         0         0         0
*MAT_USER_DEFINED_MATERIAL_MODELS_TITLE
umat43_2
$#     mid        ro        mt       lmc       nhv    iortho     ibulk        ig
         2     0.027        43        16       270         0         3         4
$#   ivect     ifail    itherm    ihyper      ieos      lmca    unused    unused
         0         0         0         1         0         0                    
$#      p1        p2        p3        p4        p5        p6        p7        p8
     70000       0.3  58333.33  26923.08     0.001      42.0      0.02     240.0
$#      p1        p2        p3        p4        p5        p6        p7        p8
      78.0       0.0       1.4       0.1       0.0       0.0       2.0       0.0
*PART
$#                                                                         title
boxsolid_3
$#     pid     secid       mid     eosid      hgid      grav    adpopt      tmid
         3         1         3         0         0         0         0         0
*MAT_USER_DEFINED_MATERIAL_MODELS_TITLE
umat43_3
$#     mid        ro        mt       lmc       nhv    iortho     ibulk        ig
         3     0.027        43        16       270         0         3         4
$#   ivect     ifail    itherm    ihyper      ieos      lmca    unused    unused
         0         0         0         1         0         0                    
$#      p1        p2        p3        p4        p5        p6        p7        p8
     70000       0.3  58333.33  26923.08     0.001      42.0      0.02     240.0
$#      p1        p2        p3        p4        p5        p6        p7        p8
      78.0       0.0       1.4       0.1       0.0       0.0       3.0       0.0
*PART
$#                                                                         title
boxsolid_4
$#     pid     secid       mid     eosid      hgid      grav    adpopt      tmid
         4         1         4         0         0         0         0         0
*MAT_USER_DEFINED_MATERIAL_MODELS_TITLE
umat43_4
$#     mid        ro        mt       lmc       nhv    iortho     ibulk        ig
         4     0.027        43        16       270         0         3         4
$#   ivect     ifail    itherm    ihyper      ieos      lmca    unused    unused
         0         0         0         1         0         0                    
$#      p1        p2        p3        p4        p5        p6        p7        p8
     70000       0.3  58333.33  26923.08     0.001      42.0      0.02     240.0
$#      p1        p2        p3        p4        p5        p6        p7        p8
      78.0       0.0       1.4       0.1       0.0       0.0       4.0       0.0
*PART
$#                                                                         title
boxsolid_5
$#     pid     secid       mid     eosid      hgid      grav    adpopt      tmid
         5         1         5         0         0         0         0         0
*MAT_USER_DEFINED_MATERIAL_MODELS_TITLE
umat43_5
$#     mid        ro        mt       lmc       nhv    iortho     ibulk        ig
         5     0.027        43        16       270         0         3         4
$#   ivect     ifail    itherm    ihyper      ieos      lmca    unused    unused
         0         0         0         1         0         0                    
$#      p1        p2        p3        p4        p5        p6        p7        p8
     70000       0.3  58333.33  26923.08     0.001      42.0      0.02     240.0
$#      p1        p2        p3        p4        p5        p6        p7        p8
      78.0       0.0       1.4       0.1       0.0       0.0       5.0       0.0
*PART
$#                                                                         title
boxsolid_6
$#     pid     secid       mid     eosid      hgid      grav    adpopt      tmid
         6         1         6         0         0         0         0         0
*MAT_USER_DEFINED_MATERIAL_MODELS_TITLE
umat43_6
$#     mid        ro        mt       lmc       nhv    iortho     ibulk        ig
         6     0.027        43        16       270         0         3         4
$#   ivect     ifail    itherm    ihyper      ieos      lmca    unused    unused
         0         0         0         1         0         0                    
$#      p1        p2        p3        p4        p5        p6        p7        p8
     70000       0.3  58333.33  26923.08     0.001      42.0      0.02     240.0
$#      p1        p2        p3        p4        p5        p6        p7        p8
      78.0       0.0       1.4       0.1       0.0       0.0       6.0       0.0
*PART
$#                                                                         title
boxsolid_7
$#     pid     secid       mid     eosid      hgid      grav    adpopt      tmid
         7         1         7         0         0         0         0         0
*MAT_USER_DEFINED_MATERIAL_MODELS_TITLE
umat43_7
$#     mid        ro        mt       lmc       nhv    iortho     ibulk        ig
         7     0.027        43        16       270         0         3         4
$#   ivect     ifail    itherm    ihyper      ieos      lmca    unused    unused
         0         0         0         1         0         0                    
$#      p1        p2        p3        p4        p5        p6        p7        p8
     70000       0.3  58333.33  26923.08     0.001      42.0      0.02     240.0
$#      p1        p2        p3        p4        p5        p6        p7        p8
      78.0       0.0       1.4       0.1       0.0       0.0       7.0       0.0
*PART
$#                                                                         title
boxsolid_8
$#     pid     secid       mid     eosid      hgid      grav    adpopt      tmid
         8         1         8         0         0         0         0         0
*MAT_USER_DEFINED_MATERIAL_MODELS_TITLE
umat43_8
$#     mid        ro        mt       lmc       nhv    iortho     ibulk        ig
         8     0.027        43        16       270         0         3         4
$#   ivect     ifail    itherm    ihyper      ieos      lmca    unused    unused
         0         0         0         1         0         0                    
$#      p1        p2        p3        p4        p5        p6        p7        p8
     70000       0.3  58333.33  26923.08     0.001      42.0      0.02     240.0
$#      p1        p2        p3        p4        p5        p6        p7        p8
      78.0       0.0       1.4       0.1       0.0       0.0       8.0       0.0
*PART
$#                                                                         title
boxsolid_9
$#     pid     secid       mid     eosid      hgid      grav    adpopt      tmid
         9         1         9         0         0         0         0         0
*MAT_USER_DEFINED_MATERIAL_MODELS_TITLE
umat43_9
$#     mid        ro        mt       lmc       nhv    iortho     ibulk        ig
         9     0.027        43        16       270         0         3         4
$#   ivect     ifail    itherm    ihyper      ieos      lmca    unused    unused
         0         0         0         1         0         0                    
$#      p1        p2        p3        p4        p5        p6        p7        p8
     70000       0.3  58333.33  26923.08     0.001      42.0      0.02     240.0
$#      p1        p2        p3        p4        p5        p6        p7        p8
      78.0       0.0       1.4       0.1       0.0       0.0       9.0       0.0
*PART
$#                                                                         title
boxsolid_10
$#     pid     secid       mid     eosid      hgid      grav    adpopt      tmid
        10         1        10         0         0         0         0         0
*MAT_USER_DEFINED_MATERIAL_MODELS_TITLE
umat43_10
$#     mid        ro        mt       lmc       nhv    iortho     ibulk        ig
        10     0.027        43        16       270         0         3         4
$#   ivect     ifail    itherm    ihyper      ieos      lmca    unused    unused
         0         0         0         1         0         0                    
$#      p1        p2        p3        p4        p5        p6        p7        p8
     70000       0.3  58333.33  26923.08     0.001      42.0      0.02     240.0
$#      p1        p2        p3        p4        p5        p6        p7        p8
      78.0       0.0       1.4       0.1       0.0       0.0      10.0       0.0
*PART
$#                                                                         title
boxsolid_11
$#     pid     secid       mid     eosid      hgid      grav    adpopt      tmid
        11         1        11         0         0         0         0         0
*MAT_USER_DEFINED_MATERIAL_MODELS_TITLE
umat43_11
$#     mid        ro        mt       lmc       nhv    iortho     ibulk        ig
        11     0.027        43        16       270         0         3         4
$#   ivect     ifail    itherm    ihyper      ieos      lmca    unused    unused
         0         0         0         1         0         0                    
$#      p1        p2        p3        p4        p5        p6        p7        p8
     70000       0.3  58333.33  26923.08     0.001      42.0      0.02     240.0
$#      p1        p2        p3        p4        p5        p6        p7        p8
      78.0       0.0       1.4       0.1       0.0       0.0      11.0       0.0
*PART
$#                                                                         title
boxsolid_12
$#     pid     secid       mid     eosid      hgid      grav    adpopt      tmid
        12         1        12         0         0         0         0         0
*MAT_USER_DEFINED_MATERIAL_MODELS_TITLE
umat43_12
$#     mid        ro        mt       lmc       nhv    iortho     ibulk        ig
        12     0.027        43        16       270         0         3         4
$#   ivect     ifail    itherm    ihyper      ieos      lmca    unused    unused
         0         0         0         1         0         0                    
$#      p1        p2        p3        p4        p5        p6        p7        p8
     70000       0.3  58333.33  26923.08     0.001      42.0      0.02     240.0
$#      p1        p2        p3        p4        p5        p6        p7        p8
      78.0       0.0       1.4       0.1       0.0       0.0      12.0       0.0
*PART
$#                                                                         title
boxsolid_13
$#     pid     secid       mid     eosid      hgid      grav    adpopt      tmid
        13         1        13         0         0         0         0         0
*MAT_USER_DEFINED_MATERIAL_MODELS_TITLE
umat43_13
$#     mid        ro        mt       lmc       nhv    iortho     ibulk        ig
        13     0.027        43        16       270         0         3         4
$#   ivect     ifail    itherm    ihyper      ieos      lmca    unused    unused
         0         0         0         1         0         0                    
$#      p1        p2        p3        p4        p5        p6        p7        p8
     70000       0.3  58333.33  26923.08     0.001      42.0      0.02     240.0
$#      p1        p2        p3        p4        p5        p6        p7        p8
      78.0       0.0       1.4       0.1       0.0       0.0      13.0       0.0
*PART
$#                                                                         title
boxsolid_14
$#     pid     secid       mid     eosid      hgid      grav    adpopt      tmid
        14         1        14         0         0         0         0         0
*MAT_USER_DEFINED_MATERIAL_MODELS_TITLE
umat43_14
$#     mid        ro        mt       lmc       nhv    iortho     ibulk        ig
        14     0.027        43        16       270         0         3         4
$#   ivect     ifail    itherm    ihyper      ieos      lmca    unused    unused
         0         0         0         1         0         0                    
$#      p1        p2        p3        p4        p5        p6        p7        p8
     70000       0.3  58333.33  26923.08     0.001      42.0      0.02     240.0
$#      p1        p2        p3        p4        p5        p6        p7        p8
      78.0       0.0       1.4       0.1       0.0       0.0      14.0       0.0
*PART
$#                                                                         title
boxsolid_15
$#     pid     secid       mid     eosid      hgid      grav    adpopt      tmid
        15         1        15         0         0         0         0         0
*MAT_USER_DEFINED_MATERIAL_MODELS_TITLE
umat43_15
$#     mid        ro        mt       lmc       nhv    iortho     ibulk        ig
        15     0.027        43        16       270         0         3         4
$#   ivect     ifail    itherm    ihyper      ieos      lmca    unused    unused
         0         0         0         1         0         0                    
$#      p1        p2        p3        p4        p5        p6        p7        p8
     70000       0.3  58333.33  26923.08     0.001      42.0      0.02     240.0
$#      p1        p2        p3        p4        p5        p6        p7        p8
      78.0       0.0       1.4       0.1       0.0       0.0      15.0       0.0
*PART
$#                                                                         title
boxsolid_16
$#     pid     secid       mid     eosid      hgid      grav    adpopt      tmid
        16         1        16         0         0         0         0         0
*MAT_USER_DEFINED_MATERIAL_MODELS_TITLE
umat43_16
$#     mid        ro        mt       lmc       nhv    iortho     ibulk        ig
        16     0.027        43        16       270         0         3         4
$#   ivect     ifail    itherm    ihyper      ieos      lmca    unused    unused
         0         0         0         1         0         0                    
$#      p1        p2        p3        p4        p5        p6        p7        p8
     70000       0.3  58333.33  26923.08     0.001      42.0      0.02     240.0
$#      p1        p2        p3        p4        p5        p6        p7        p8
      78.0       0.0       1.4       0.1       0.0       0.0      16.0       0.0
*PART
$#                                                                         title
boxsolid_17
$#     pid     secid       mid     eosid      hgid      grav    adpopt      tmid
        17         1        17         0         0         0         0         0
*MAT_USER_DEFINED_MATERIAL_MODELS_TITLE
umat43_17
$#     mid        ro        mt       lmc       nhv    iortho     ibulk        ig
        17     0.027        43        16       270         0         3         4
$#   ivect     ifail    itherm    ihyper      ieos      lmca    unused    unused
         0         0         0         1         0         0                    
$#      p1        p2        p3        p4        p5        p6        p7        p8
     70000       0.3  58333.33  26923.08     0.001      42.0      0.02     240.0
$#      p1        p2        p3        p4        p5        p6        p7        p8
      78.0       0.0       1.4       0.1       0.0       0.0      17.0       0.0
*PART
$#                                                                         title
boxsolid_18
$#     pid     secid       mid     eosid      hgid      grav    adpopt      tmid
        18         1        18         0         0         0         0         0
*MAT_USER_DEFINED_MATERIAL_MODELS_TITLE
umat43_18
$#     mid        ro        mt       lmc       nhv    iortho     ibulk        ig
        18     0.027        43        16       270         0         3         4
$#   ivect     ifail    itherm    ihyper      ieos      lmca    unused    unused
         0         0         0         1         0         0                    
$#      p1        p2        p3        p4        p5        p6        p7        p8
     70000       0.3  58333.33  26923.08     0.001      42.0      0.02     240.0
$#      p1        p2        p3        p4        p5        p6        p7        p8
      78.0       0.0       1.4       0.1       0.0       0.0      18.0       0.0
*PART
$#                                                                         title
boxsolid_19
$#     pid     secid       mid     eosid      hgid      grav    adpopt      tmid
        19         1        19         0         0         0         0         0
*MAT_USER_DEFINED_MATERIAL_MODELS_TITLE
umat43_19
$#     mid        ro        mt       lmc       nhv    iortho     ibulk        ig
        19     0.027        43        16       270         0         3         4
$#   ivect     ifail    itherm    ihyper      ieos      lmca    unused    unused
         0         0         0         1         0         0                    
$#      p1        p2        p3        p4        p5        p6        p7        p8
     70000       0.3  58333.33  26923.08     0.001      42.0      0.02     240.0
$#      p1        p2        p3        p4        p5        p6        p7        p8
      78.0       0.0       1.4       0.1       0.0       0.0      19.0       0.0
*PART
$#                                                                         title
boxsolid_20
$#     pid     secid       mid     eosid      hgid      grav    adpopt      tmid
        20         1        20         0         0         0         0         0
*MAT_USER_DEFINED_MATERIAL_MODELS_TITLE
umat43_20
$#     mid        ro        mt       lmc       nhv    iortho     ibulk        ig
        20     0.027        43        16       270         0         3         4
$#   ivect     ifail    itherm    ihyper      ieos      lmca    unused    unused
         0         0         0         1         0         0                    
$#      p1        p2        p3        p4        p5        p6        p7        p8
     70000       0.3  58333.33  26923.08     0.001      42.0      0.02     240.0
$#      p1        p2        p3        p4        p5        p6        p7        p8
      78.0       0.0       1.4       0.1       0.0       0.0      20.0       0.0
*PART
$#                                                                         title
boxsolid_21
$#     pid     secid       mid     eosid      hgid      grav    adpopt      tmid
        21         1        21         0         0         0         0         0
*MAT_USER_DEFINED_MATERIAL_MODELS_TITLE
umat43_21
$#     mid        ro        mt       lmc       nhv    iortho     ibulk        ig
        21     0.027        43        16       270         0         3         4
$#   ivect     ifail    itherm    ihyper      ieos      lmca    unused    unused
         0         0         0         1         0         0                    
$#      p1        p2        p3        p4        p5        p6        p7        p8
     70000       0.3  58333.33  26923.08     0.001      42.0      0.02     240.0
$#      p1        p2        p3        p4        p5        p6        p7        p8
      78.0       0.0       1.4       0.1       0.0       0.0      21.0       0.0
*PART
$#                                                                         title
boxsolid_22
$#     pid     secid       mid     eosid      hgid      grav    adpopt      tmid
        22         1        22         0         0         0         0         0
*MAT_USER_DEFINED_MATERIAL_MODELS_TITLE
umat43_22
$#     mid        ro        mt       lmc       nhv    iortho     ibulk        ig
        22     0.027        43        16       270         0         3         4
$#   ivect     ifail    itherm    ihyper      ieos      lmca    unused    unused
         0         0         0         1         0         0                    
$#      p1        p2        p3        p4        p5        p6        p7        p8
     70000       0.3  58333.33  26923.08     0.001      42.0      0.02     240.0
$#      p1        p2        p3        p4        p5        p6        p7        p8
      78.0       0.0       1.4       0.1       0.0       0.0      22.0       0.0
*PART
$#                                                                         title
boxsolid_23
$#     pid     secid       mid     eosid      hgid      grav    adpopt      tmid
        23         1        23         0         0         0         0         0
*MAT_USER_DEFINED_MATERIAL_MODELS_TITLE
umat43_23
$#     mid        ro        mt       lmc       nhv    iortho     ibulk        ig
        23     0.027        43        16       270         0         3         4
$#   ivect     ifail    itherm    ihyper      ieos      lmca    unused    unused
         0         0         0         1         0         0                    
$#      p1        p2        p3        p4        p5        p6        p7        p8
     70000       0.3  58333.33  26923.08     0.001      42.0      0.02     240.0
$#      p1        p2        p3        p4        p5        p6        p7        p8
      78.0       0.0       1.4       0.1       0.0       0.0      23.0       0.0
*PART
$#                                                                         title
boxsolid_24
$#     pid     secid       mid     eosid      hgid      grav    adpopt      tmid
        24         1        24         0         0         0         0         0
*MAT_USER_DEFINED_MATERIAL_MODELS_TITLE
umat43_24
$#     mid        ro        mt       lmc       nhv    iortho     ibulk        ig
        24     0.027        43        16       270         0         3         4
$#   ivect     ifail    itherm    ihyper      ieos      lmca    unused    unused
         0         0         0         1         0         0                    
$#      p1        p2        p3        p4        p5        p6        p7        p8
     70000       0.3  58333.33  26923.08     0.001      42.0      0.02     240.0
$#      p1        p2        p3        p4        p5        p6        p7        p8
      78.0       0.0       1.4       0.1       0.0       0.0      24.0       0.0
*PART
$#                                                                         title
boxsolid_25
$#     pid     secid       mid     eosid      hgid      grav    adpopt      tmid
        25         1        25         0         0         0         0         0
*MAT_USER_DEFINED_MATERIAL_MODELS_TITLE
umat43_25
$#     mid        ro        mt       lmc       nhv    iortho     ibulk        ig
        25     0.027        43        16       270         0         3         4
$#   ivect     ifail    itherm    ihyper      ieos      lmca    unused    unused
         0         0         0         1         0         0                    
$#      p1        p2        p3        p4        p5        p6        p7        p8
     70000       0.3  58333.33  26923.08     0.001      42.0      0.02     240.0
$#      p1        p2        p3        p4        p5        p6        p7        p8
      78.0       0.0       1.4       0.1       0.0       0.0      25.0       0.0
*PART
$#                                                                         title
boxsolid_26
$#     pid     secid       mid     eosid      hgid      grav    adpopt      tmid
        26         1        26         0         0         0         0         0
*MAT_USER_DEFINED_MATERIAL_MODELS_TITLE
umat43_26
$#     mid        ro        mt       lmc       nhv    iortho     ibulk        ig
        26     0.027        43        16       270         0         3         4
$#   ivect     ifail    itherm    ihyper      ieos      lmca    unused    unused
         0         0         0         1         0         0                    
$#      p1        p2        p3        p4        p5        p6        p7        p8
     70000       0.3  58333.33  26923.08     0.001      42.0      0.02     240.0
$#      p1        p2        p3        p4        p5        p6        p7        p8
      78.0       0.0       1.4       0.1       0.0       0.0      26.0       0.0
*PART
$#                                                                         title
boxsolid_27
$#     pid     secid       mid     eosid      hgid      grav    adpopt      tmid
        27         1        27         0         0         0         0         0
*MAT_USER_DEFINED_MATERIAL_MODELS_TITLE
umat43_27
$#     mid        ro        mt       lmc       nhv    iortho     ibulk        ig
        27     0.027        43        16       270         0         3         4
$#   ivect     ifail    itherm    ihyper      ieos      lmca    unused    unused
         0         0         0         1         0         0                    
$#      p1        p2        p3        p4        p5        p6        p7        p8
     70000       0.3  58333.33  26923.08     0.001      42.0      0.02     240.0
$#      p1        p2        p3        p4        p5        p6        p7        p8
      78.0       0.0       1.4       0.1       0.0       0.0      27.0       0.0
*PART
$#                                                                         title
boxsolid_28
$#     pid     secid       mid     eosid      hgid      grav    adpopt      tmid
        28         1        28         0         0         0         0         0
*MAT_USER_DEFINED_MATERIAL_MODELS_TITLE
umat43_28
$#     mid        ro        mt       lmc       nhv    iortho     ibulk        ig
        28     0.027        43        16       270         0         3         4
$#   ivect     ifail    itherm    ihyper      ieos      lmca    unused    unused
         0         0         0         1         0         0                    
$#      p1        p2        p3        p4        p5        p6        p7        p8
     70000       0.3  58333.33  26923.08     0.001      42.0      0.02     240.0
$#      p1        p2        p3        p4        p5        p6        p7        p8
      78.0       0.0       1.4       0.1       0.0       0.0      28.0       0.0
*PART
$#                                                                         title
boxsolid_29
$#     pid     secid       mid     eosid      hgid      grav    adpopt      tmid
        29         1        29         0         0         0         0         0
*MAT_USER_DEFINED_MATERIAL_MODELS_TITLE
umat43_29
$#     mid        ro        mt       lmc       nhv    iortho     ibulk        ig
        29     0.027        43        16       270         0         3         4
$#   ivect     ifail    itherm    ihyper      ieos      lmca    unused    unused
         0         0         0         1         0         0                    
$#      p1        p2        p3        p4        p5        p6        p7        p8
     70000       0.3  58333.33  26923.08     0.001      42.0      0.02     240.0
$#      p1        p2        p3        p4        p5        p6        p7        p8
      78.0       0.0       1.4       0.1       0.0       0.0      29.0       0.0
*PART
$#                                                                         title
boxsolid_30
$#     pid     secid       mid     eosid      hgid      grav    adpopt      tmid
        30         1        30         0         0         0         0         0
*MAT_USER_DEFINED_MATERIAL_MODELS_TITLE
umat43_30
$#     mid        ro        mt       lmc       nhv    iortho     ibulk        ig
        30     0.027        43        16       270         0         3         4
$#   ivect     ifail    itherm    ihyper      ieos      lmca    unused    unused
         0         0         0         1         0         0                    
$#      p1        p2        p3        p4        p5        p6        p7        p8
     70000       0.3  58333.33  26923.08     0.001      42.0      0.02     240.0
$#      p1        p2        p3        p4        p5        p6        p7        p8
      78.0       0.0       1.4       0.1       0.0       0.0      30.0       0.0
*PART
$#                                                                         title
boxsolid_31
$#     pid     secid       mid     eosid      hgid      grav    adpopt      tmid
        31         1        31         0         0         0         0         0
*MAT_USER_DEFINED_MATERIAL_MODELS_TITLE
umat43_31
$#     mid        ro        mt       lmc       nhv    iortho     ibulk        ig
        31     0.027        43        16       270         0         3         4
$#   ivect     ifail    itherm    ihyper      ieos      lmca    unused    unused
         0         0         0         1         0         0                    
$#      p1        p2        p3        p4        p5        p6        p7        p8
     70000       0.3  58333.33  26923.08     0.001      42.0      0.02     240.0
$#      p1        p2        p3        p4        p5        p6        p7        p8
      78.0       0.0       1.4       0.1       0.0       0.0      31.0       0.0
*PART
$#                                                                         title
boxsolid_32
$#     pid     secid       mid     eosid      hgid      grav    adpopt      tmid
        32         1        32         0         0         0         0         0
*MAT_USER_DEFINED_MATERIAL_MODELS_TITLE
umat43_32
$#     mid        ro        mt       lmc       nhv    iortho     ibulk        ig
        32     0.027        43        16       270         0         3         4
$#   ivect     ifail    itherm    ihyper      ieos      lmca    unused    unused
         0         0         0         1         0         0                    
$#      p1        p2        p3        p4        p5        p6        p7        p8
     70000       0.3  58333.33  26923.08     0.001      42.0      0.02     240.0
$#      p1        p2        p3        p4        p5        p6        p7        p8
      78.0       0.0       1.4       0.1       0.0       0.0      32.0       0.0
*PART
$#                                                                         title
boxsolid_33
$#     pid     secid       mid     eosid      hgid      grav    adpopt      tmid
        33         1        33         0         0         0         0         0
*MAT_USER_DEFINED_MATERIAL_MODELS_TITLE
umat43_33
$#     mid        ro        mt       lmc       nhv    iortho     ibulk        ig
        33     0.027        43        16       270         0         3         4
$#   ivect     ifail    itherm    ihyper      ieos      lmca    unused    unused
         0         0         0         1         0         0                    
$#      p1        p2        p3        p4        p5        p6        p7        p8
     70000       0.3  58333.33  26923.08     0.001      42.0      0.02     240.0
$#      p1        p2        p3        p4        p5        p6        p7        p8
      78.0       0.0       1.4       0.1       0.0       0.0      33.0       0.0
*PART
$#                                                                         title
boxsolid_34
$#     pid     secid       mid     eosid      hgid      grav    adpopt      tmid
        34         1        34         0         0         0         0         0
*MAT_USER_DEFINED_MATERIAL_MODELS_TITLE
umat43_34
$#     mid        ro        mt       lmc       nhv    iortho     ibulk        ig
        34     0.027        43        16       270         0         3         4
$#   ivect     ifail    itherm    ihyper      ieos      lmca    unused    unused
         0         0         0         1         0         0                    
$#      p1        p2        p3        p4        p5        p6        p7        p8
     70000       0.3  58333.33  26923.08     0.001      42.0      0.02     240.0
$#      p1        p2        p3        p4        p5        p6        p7        p8
      78.0       0.0       1.4       0.1       0.0       0.0      34.0       0.0
*PART
$#                                                                         title
boxsolid_35
$#     pid     secid       mid     eosid      hgid      grav    adpopt      tmid
        35         1        35         0         0         0         0         0
*MAT_USER_DEFINED_MATERIAL_MODELS_TITLE
umat43_35
$#     mid        ro        mt       lmc       nhv    iortho     ibulk        ig
        35     0.027        43        16       270         0         3         4
$#   ivect     ifail    itherm    ihyper      ieos      lmca    unused    unused
         0         0         0         1         0         0                    
$#      p1        p2        p3        p4        p5        p6        p7        p8
     70000       0.3  58333.33  26923.08     0.001      42.0      0.02     240.0
$#      p1        p2        p3        p4        p5        p6        p7        p8
      78.0       0.0       1.4       0.1       0.0       0.0      35.0       0.0
*PART
$#                                                                         title
boxsolid_36
$#     pid     secid       mid     eosid      hgid      grav    adpopt      tmid
        36         1        36         0         0         0         0         0
*MAT_USER_DEFINED_MATERIAL_MODELS_TITLE
umat43_36
$#     mid        ro        mt       lmc       nhv    iortho     ibulk        ig
        36     0.027        43        16       270         0         3         4
$#   ivect     ifail    itherm    ihyper      ieos      lmca    unused    unused
         0         0         0         1         0         0                    
$#      p1        p2        p3        p4        p5        p6        p7        p8
     70000       0.3  58333.33  26923.08     0.001      42.0      0.02     240.0
$#      p1        p2        p3        p4        p5        p6        p7        p8
      78.0       0.0       1.4       0.1       0.0       0.0      36.0       0.0
*PART
$#                                                                         title
boxsolid_37
$#     pid     secid       mid     eosid      hgid      grav    adpopt      tmid
        37         1        37         0         0         0         0         0
*MAT_USER_DEFINED_MATERIAL_MODELS_TITLE
umat43_37
$#     mid        ro        mt       lmc       nhv    iortho     ibulk        ig
        37     0.027        43        16       270         0         3         4
$#   ivect     ifail    itherm    ihyper      ieos      lmca    unused    unused
         0         0         0         1         0         0                    
$#      p1        p2        p3        p4        p5        p6        p7        p8
     70000       0.3  58333.33  26923.08     0.001      42.0      0.02     240.0
$#      p1        p2        p3        p4        p5        p6        p7        p8
      78.0       0.0       1.4       0.1       0.0       0.0      37.0       0.0
*PART
$#                                                                         title
boxsolid_38
$#     pid     secid       mid     eosid      hgid      grav    adpopt      tmid
        38         1        38         0         0         0         0         0
*MAT_USER_DEFINED_MATERIAL_MODELS_TITLE
umat43_38
$#     mid        ro        mt       lmc       nhv    iortho     ibulk        ig
        38     0.027        43        16       270         0         3         4
$#   ivect     ifail    itherm    ihyper      ieos      lmca    unused    unused
         0         0         0         1         0         0                    
$#      p1        p2        p3        p4        p5        p6        p7        p8
     70000       0.3  58333.33  26923.08     0.001      42.0      0.02     240.0
$#      p1        p2        p3        p4        p5        p6        p7        p8
      78.0       0.0       1.4       0.1       0.0       0.0      38.0       0.0
*PART
$#                                                                         title
boxsolid_39
$#     pid     secid       mid     eosid      hgid      grav    adpopt      tmid
        39         1        39         0         0         0         0         0
*MAT_USER_DEFINED_MATERIAL_MODELS_TITLE
umat43_39
$#     mid        ro        mt       lmc       nhv    iortho     ibulk        ig
        39     0.027        43        16       270         0         3         4
$#   ivect     ifail    itherm    ihyper      ieos      lmca    unused    unused
         0         0         0         1         0         0                    
$#      p1        p2        p3        p4        p5        p6        p7        p8
     70000       0.3  58333.33  26923.08     0.001      42.0      0.02     240.0
$#      p1        p2        p3        p4        p5        p6        p7        p8
      78.0       0.0       1.4       0.1       0.0       0.0      39.0       0.0
*PART
$#                                                                         title
boxsolid_40
$#     pid     secid       mid     eosid      hgid      grav    adpopt      tmid
        40         1        40         0         0         0         0         0
*MAT_USER_DEFINED_MATERIAL_MODELS_TITLE
umat43_40
$#     mid        ro        mt       lmc       nhv    iortho     ibulk        ig
        40     0.027        43        16       270         0         3         4
$#   ivect     ifail    itherm    ihyper      ieos      lmca    unused    unused
         0         0         0         1         0         0                    
$#      p1        p2        p3        p4        p5        p6        p7        p8
     70000       0.3  58333.33  26923.08     0.001      42.0      0.02     240.0
$#      p1        p2        p3        p4        p5        p6        p7        p8
      78.0       0.0       1.4       0.1       0.0       0.0      40.0       0.0
*PART
$#                                                                         title
boxsolid_41
$#     pid     secid       mid     eosid      hgid      grav    adpopt      tmid
        41         1        41         0         0         0         0         0
*MAT_USER_DEFINED_MATERIAL_MODELS_TITLE
umat43_41
$#     mid        ro        mt       lmc       nhv    iortho     ibulk        ig
        41     0.027        43        16       270         0         3         4
$#   ivect     ifail    itherm    ihyper      ieos      lmca    unused    unused
         0         0         0         1         0         0                    
$#      p1        p2        p3        p4        p5        p6        p7        p8
     70000       0.3  58333.33  26923.08     0.001      42.0      0.02     240.0
$#      p1        p2        p3        p4        p5        p6        p7        p8
      78.0       0.0       1.4       0.1       0.0       0.0      41.0       0.0
*PART
$#                                                                         title
boxsolid_42
$#     pid     secid       mid     eosid      hgid      grav    adpopt      tmid
        42         1        42         0         0         0         0         0
*MAT_USER_DEFINED_MATERIAL_MODELS_TITLE
umat43_42
$#     mid        ro        mt       lmc       nhv    iortho     ibulk        ig
        42     0.027        43        16       270         0         3         4
$#   ivect     ifail    itherm    ihyper      ieos      lmca    unused    unused
         0         0         0         1         0         0                    
$#      p1        p2        p3        p4        p5        p6        p7        p8
     70000       0.3  58333.33  26923.08     0.001      42.0      0.02     240.0
$#      p1        p2        p3        p4        p5        p6        p7        p8
      78.0       0.0       1.4       0.1       0.0       0.0      42.0       0.0
*PART
$#                                                                         title
boxsolid_43
$#     pid     secid       mid     eosid      hgid      grav    adpopt      tmid
        43         1        43         0         0         0         0         0
*MAT_USER_DEFINED_MATERIAL_MODELS_TITLE
umat43_43
$#     mid        ro        mt       lmc       nhv    iortho     ibulk        ig
        43     0.027        43        16       270         0         3         4
$#   ivect     ifail    itherm    ihyper      ieos      lmca    unused    unused
         0         0         0         1         0         0                    
$#      p1        p2        p3        p4        p5        p6        p7        p8
     70000       0.3  58333.33  26923.08     0.001      42.0      0.02     240.0
$#      p1        p2        p3        p4        p5        p6        p7        p8
      78.0       0.0       1.4       0.1       0.0       0.0      43.0       0.0
*PART
$#                                                                         title
boxsolid_44
$#     pid     secid       mid     eosid      hgid      grav    adpopt      tmid
        44         1        44         0         0         0         0         0
*MAT_USER_DEFINED_MATERIAL_MODELS_TITLE
umat43_44
$#     mid        ro        mt       lmc       nhv    iortho     ibulk        ig
        44     0.027        43        16       270         0         3         4
$#   ivect     ifail    itherm    ihyper      ieos      lmca    unused    unused
         0         0         0         1         0         0                    
$#      p1        p2        p3        p4        p5        p6        p7        p8
     70000       0.3  58333.33  26923.08     0.001      42.0      0.02     240.0
$#      p1        p2        p3        p4        p5        p6        p7        p8
      78.0       0.0       1.4       0.1       0.0       0.0      44.0       0.0
*PART
$#                                                                         title
boxsolid_45
$#     pid     secid       mid     eosid      hgid      grav    adpopt      tmid
        45         1        45         0         0         0         0         0
*MAT_USER_DEFINED_MATERIAL_MODELS_TITLE
umat43_45
$#     mid        ro        mt       lmc       nhv    iortho     ibulk        ig
        45     0.027        43        16       270         0         3         4
$#   ivect     ifail    itherm    ihyper      ieos      lmca    unused    unused
         0         0         0         1         0         0                    
$#      p1        p2        p3        p4        p5        p6        p7        p8
     70000       0.3  58333.33  26923.08     0.001      42.0      0.02     240.0
$#      p1        p2        p3        p4        p5        p6        p7        p8
      78.0       0.0       1.4       0.1       0.0       0.0      45.0       0.0
*PART
$#                                                                         title
boxsolid_46
$#     pid     secid       mid     eosid      hgid      grav    adpopt      tmid
        46         1        46         0         0         0         0         0
*MAT_USER_DEFINED_MATERIAL_MODELS_TITLE
umat43_46
$#     mid        ro        mt       lmc       nhv    iortho     ibulk        ig
        46     0.027        43        16       270         0         3         4
$#   ivect     ifail    itherm    ihyper      ieos      lmca    unused    unused
         0         0         0         1         0         0                    
$#      p1        p2        p3        p4        p5        p6        p7        p8
     70000       0.3  58333.33  26923.08     0.001      42.0      0.02     240.0
$#      p1        p2        p3        p4        p5        p6        p7        p8
      78.0       0.0       1.4       0.1       0.0       0.0      46.0       0.0
*PART
$#                                                                         title
boxsolid_47
$#     pid     secid       mid     eosid      hgid      grav    adpopt      tmid
        47         1        47         0         0         0         0         0
*MAT_USER_DEFINED_MATERIAL_MODELS_TITLE
umat43_47
$#     mid        ro        mt       lmc       nhv    iortho     ibulk        ig
        47     0.027        43        16       270         0         3         4
$#   ivect     ifail    itherm    ihyper      ieos      lmca    unused    unused
         0         0         0         1         0         0                    
$#      p1        p2        p3        p4        p5        p6        p7        p8
     70000       0.3  58333.33  26923.08     0.001      42.0      0.02     240.0
$#      p1        p2        p3        p4        p5        p6        p7        p8
      78.0       0.0       1.4       0.1       0.0       0.0      47.0       0.0
*PART
$#                                                                         title
boxsolid_48
$#     pid     secid       mid     eosid      hgid      grav    adpopt      tmid
        48         1        48         0         0         0         0         0
*MAT_USER_DEFINED_MATERIAL_MODELS_TITLE
umat43_48
$#     mid        ro        mt       lmc       nhv    iortho     ibulk        ig
        48     0.027        43        16       270         0         3         4
$#   ivect     ifail    itherm    ihyper      ieos      lmca    unused    unused
         0         0         0         1         0         0                    
$#      p1        p2        p3        p4        p5        p6        p7        p8
     70000       0.3  58333.33  26923.08     0.001      42.0      0.02     240.0
$#      p1        p2        p3        p4        p5        p6        p7        p8
      78.0       0.0       1.4       0.1       0.0       0.0      48.0       0.0
*PART
$#                                                                         title
boxsolid_49
$#     pid     secid       mid     eosid      hgid      grav    adpopt      tmid
        49         1        49         0         0         0         0         0
*MAT_USER_DEFINED_MATERIAL_MODELS_TITLE
umat43_49
$#     mid        ro        mt       lmc       nhv    iortho     ibulk        ig
        49     0.027        43        16       270         0         3         4
$#   ivect     ifail    itherm    ihyper      ieos      lmca    unused    unused
         0         0         0         1         0         0                    
$#      p1        p2        p3        p4        p5        p6        p7        p8
     70000       0.3  58333.33  26923.08     0.001      42.0      0.02     240.0
$#      p1        p2        p3        p4        p5        p6        p7        p8
      78.0       0.0       1.4       0.1       0.0       0.0      49.0       0.0
*PART
$#                                                                         title
boxsolid_50
$#     pid     secid       mid     eosid      hgid      grav    adpopt      tmid
        50         1        50         0         0         0         0         0
*MAT_USER_DEFINED_MATERIAL_MODELS_TITLE
umat43_50
$#     mid        ro        mt       lmc       nhv    iortho     ibulk        ig
        50     0.027        43        16       270         0         3         4
$#   ivect     ifail    itherm    ihyper      ieos      lmca    unused    unused
         0         0         0         1         0         0                    
$#      p1        p2        p3        p4        p5        p6        p7        p8
     70000       0.3  58333.33  26923.08     0.001      42.0      0.02     240.0
$#      p1        p2        p3        p4        p5        p6        p7        p8
      78.0       0.0       1.4       0.1       0.0       0.0      50.0       0.0
*PART
$#                                                                         title
boxsolid_51
$#     pid     secid       mid     eosid      hgid      grav    adpopt      tmid
        51         1        51         0         0         0         0         0
*MAT_USER_DEFINED_MATERIAL_MODELS_TITLE
umat43_51
$#     mid        ro        mt       lmc       nhv    iortho     ibulk        ig
        51     0.027        43        16       270         0         3         4
$#   ivect     ifail    itherm    ihyper      ieos      lmca    unused    unused
         0         0         0         1         0         0                    
$#      p1        p2        p3        p4        p5        p6        p7        p8
     70000       0.3  58333.33  26923.08     0.001      42.0      0.02     240.0
$#      p1        p2        p3        p4        p5        p6        p7        p8
      78.0       0.0       1.4       0.1       0.0       0.0      51.0       0.0
*PART
$#                                                                         title
boxsolid_52
$#     pid     secid       mid     eosid      hgid      grav    adpopt      tmid
        52         1        52         0         0         0         0         0
*MAT_USER_DEFINED_MATERIAL_MODELS_TITLE
umat43_52
$#     mid        ro        mt       lmc       nhv    iortho     ibulk        ig
        52     0.027        43        16       270         0         3         4
$#   ivect     ifail    itherm    ihyper      ieos      lmca    unused    unused
         0         0         0         1         0         0                    
$#      p1        p2        p3        p4        p5        p6        p7        p8
     70000       0.3  58333.33  26923.08     0.001      42.0      0.02     240.0
$#      p1        p2        p3        p4        p5        p6        p7        p8
      78.0       0.0       1.4       0.1       0.0       0.0      52.0       0.0
*PART
$#                                                                         title
boxsolid_53
$#     pid     secid       mid     eosid      hgid      grav    adpopt      tmid
        53         1        53         0         0         0         0         0
*MAT_USER_DEFINED_MATERIAL_MODELS_TITLE
umat43_53
$#     mid        ro        mt       lmc       nhv    iortho     ibulk        ig
        53     0.027        43        16       270         0         3         4
$#   ivect     ifail    itherm    ihyper      ieos      lmca    unused    unused
         0         0         0         1         0         0                    
$#      p1        p2        p3        p4        p5        p6        p7        p8
     70000       0.3  58333.33  26923.08     0.001      42.0      0.02     240.0
$#      p1        p2        p3        p4        p5        p6        p7        p8
      78.0       0.0       1.4       0.1       0.0       0.0      53.0       0.0
*PART
$#                                                                         title
boxsolid_54
$#     pid     secid       mid     eosid      hgid      grav    adpopt      tmid
        54         1        54         0         0         0         0         0
*MAT_USER_DEFINED_MATERIAL_MODELS_TITLE
umat43_54
$#     mid        ro        mt       lmc       nhv    iortho     ibulk        ig
        54     0.027        43        16       270         0         3         4
$#   ivect     ifail    itherm    ihyper      ieos      lmca    unused    unused
         0         0         0         1         0         0                    
$#      p1        p2        p3        p4        p5        p6        p7        p8
     70000       0.3  58333.33  26923.08     0.001      42.0      0.02     240.0
$#      p1        p2        p3        p4        p5        p6        p7        p8
      78.0       0.0       1.4       0.1       0.0       0.0      54.0       0.0
*PART
$#                                                                         title
boxsolid_55
$#     pid     secid       mid     eosid      hgid      grav    adpopt      tmid
        55         1        55         0         0         0         0         0
*MAT_USER_DEFINED_MATERIAL_MODELS_TITLE
umat43_55
$#     mid        ro        mt       lmc       nhv    iortho     ibulk        ig
        55     0.027        43        16       270         0         3         4
$#   ivect     ifail    itherm    ihyper      ieos      lmca    unused    unused
         0         0         0         1         0         0                    
$#      p1        p2        p3        p4        p5        p6        p7        p8
     70000       0.3  58333.33  26923.08     0.001      42.0      0.02     240.0
$#      p1        p2        p3        p4        p5        p6        p7        p8
      78.0       0.0       1.4       0.1       0.0       0.0      55.0       0.0
*PART
$#                                                                         title
boxsolid_56
$#     pid     secid       mid     eosid      hgid      grav    adpopt      tmid
        56         1        56         0         0         0         0         0
*MAT_USER_DEFINED_MATERIAL_MODELS_TITLE
umat43_56
$#     mid        ro        mt       lmc       nhv    iortho     ibulk        ig
        56     0.027        43        16       270         0         3         4
$#   ivect     ifail    itherm    ihyper      ieos      lmca    unused    unused
         0         0         0         1         0         0                    
$#      p1        p2        p3        p4        p5        p6        p7        p8
     70000       0.3  58333.33  26923.08     0.001      42.0      0.02     240.0
$#      p1        p2        p3        p4        p5        p6        p7        p8
      78.0       0.0       1.4       0.1       0.0       0.0      56.0       0.0
*PART
$#                                                                         title
boxsolid_57
$#     pid     secid       mid     eosid      hgid      grav    adpopt      tmid
        57         1        57         0         0         0         0         0
*MAT_USER_DEFINED_MATERIAL_MODELS_TITLE
umat43_57
$#     mid        ro        mt       lmc       nhv    iortho     ibulk        ig
        57     0.027        43        16       270         0         3         4
$#   ivect     ifail    itherm    ihyper      ieos      lmca    unused    unused
         0         0         0         1         0         0                    
$#      p1        p2        p3        p4        p5        p6        p7        p8
     70000       0.3  58333.33  26923.08     0.001      42.0      0.02     240.0
$#      p1        p2        p3        p4        p5        p6        p7        p8
      78.0       0.0       1.4       0.1       0.0       0.0      57.0       0.0
*PART
$#                                                                         title
boxsolid_58
$#     pid     secid       mid     eosid      hgid      grav    adpopt      tmid
        58         1        58         0         0         0         0         0
*MAT_USER_DEFINED_MATERIAL_MODELS_TITLE
umat43_58
$#     mid        ro        mt       lmc       nhv    iortho     ibulk        ig
        58     0.027        43        16       270         0         3         4
$#   ivect     ifail    itherm    ihyper      ieos      lmca    unused    unused
         0         0         0         1         0         0                    
$#      p1        p2        p3        p4        p5        p6        p7        p8
     70000       0.3  58333.33  26923.08     0.001      42.0      0.02     240.0
$#      p1        p2        p3        p4        p5        p6        p7        p8
      78.0       0.0       1.4       0.1       0.0       0.0      58.0       0.0
*PART
$#                                                                         title
boxsolid_59
$#     pid     secid       mid     eosid      hgid      grav    adpopt      tmid
        59         1        59         0         0         0         0         0
*MAT_USER_DEFINED_MATERIAL_MODELS_TITLE
umat43_59
$#     mid        ro        mt       lmc       nhv    iortho     ibulk        ig
        59     0.027        43        16       270         0         3         4
$#   ivect     ifail    itherm    ihyper      ieos      lmca    unused    unused
         0         0         0         1         0         0                    
$#      p1        p2        p3        p4        p5        p6        p7        p8
     70000       0.3  58333.33  26923.08     0.001      42.0      0.02     240.0
$#      p1        p2        p3        p4        p5        p6        p7        p8
      78.0       0.0       1.4       0.1       0.0       0.0      59.0       0.0
*PART
$#                                                                         title
boxsolid_60
$#     pid     secid       mid     eosid      hgid      grav    adpopt      tmid
        60         1        60         0         0         0         0         0
*MAT_USER_DEFINED_MATERIAL_MODELS_TITLE
umat43_60
$#     mid        ro        mt       lmc       nhv    iortho     ibulk        ig
        60     0.027        43        16       270         0         3         4
$#   ivect     ifail    itherm    ihyper      ieos      lmca    unused    unused
         0         0         0         1         0         0                    
$#      p1        p2        p3        p4        p5        p6        p7        p8
     70000       0.3  58333.33  26923.08     0.001      42.0      0.02     240.0
$#      p1        p2        p3        p4        p5        p6        p7        p8
      78.0       0.0       1.4       0.1       0.0       0.0      60.0       0.0
*PART
$#                                                                         title
boxsolid_61
$#     pid     secid       mid     eosid      hgid      grav    adpopt      tmid
        61         1        61         0         0         0         0         0
*MAT_USER_DEFINED_MATERIAL_MODELS_TITLE
umat43_61
$#     mid        ro        mt       lmc       nhv    iortho     ibulk        ig
        61     0.027        43        16       270         0         3         4
$#   ivect     ifail    itherm    ihyper      ieos      lmca    unused    unused
         0         0         0         1         0         0                    
$#      p1        p2        p3        p4        p5        p6        p7        p8
     70000       0.3  58333.33  26923.08     0.001      42.0      0.02     240.0
$#      p1        p2        p3        p4        p5        p6        p7        p8
      78.0       0.0       1.4       0.1       0.0       0.0      61.0       0.0
*PART
$#                                                                         title
boxsolid_62
$#     pid     secid       mid     eosid      hgid      grav    adpopt      tmid
        62         1        62         0         0         0         0         0
*MAT_USER_DEFINED_MATERIAL_MODELS_TITLE
umat43_62
$#     mid        ro        mt       lmc       nhv    iortho     ibulk        ig
        62     0.027        43        16       270         0         3         4
$#   ivect     ifail    itherm    ihyper      ieos      lmca    unused    unused
         0         0         0         1         0         0                    
$#      p1        p2        p3        p4        p5        p6        p7        p8
     70000       0.3  58333.33  26923.08     0.001      42.0      0.02     240.0
$#      p1        p2        p3        p4        p5        p6        p7        p8
      78.0       0.0       1.4       0.1       0.0       0.0      62.0       0.0
*PART
$#                                                                         title
boxsolid_63
$#     pid     secid       mid     eosid      hgid      grav    adpopt      tmid
        63         1        63         0         0         0         0         0
*MAT_USER_DEFINED_MATERIAL_MODELS_TITLE
umat43_63
$#     mid        ro        mt       lmc       nhv    iortho     ibulk        ig
        63     0.027        43        16       270         0         3         4
$#   ivect     ifail    itherm    ihyper      ieos      lmca    unused    unused
         0         0         0         1         0         0                    
$#      p1        p2        p3        p4        p5        p6        p7        p8
     70000       0.3  58333.33  26923.08     0.001      42.0      0.02     240.0
$#      p1        p2        p3        p4        p5        p6        p7        p8
      78.0       0.0       1.4       0.1       0.0       0.0      63.0       0.0
*PART
$#                                                                         title
boxsolid_64
$#     pid     secid       mid     eosid      hgid      grav    adpopt      tmid
        64         1        64         0         0         0         0         0
*MAT_USER_DEFINED_MATERIAL_MODELS_TITLE
umat43_64
$#     mid        ro        mt       lmc       nhv    iortho     ibulk        ig
        64     0.027        43        16       270         0         3         4
$#   ivect     ifail    itherm    ihyper      ieos      lmca    unused    unused
         0         0         0         1         0         0                    
$#      p1        p2        p3        p4        p5        p6        p7        p8
     70000       0.3  58333.33  26923.08     0.001      42.0      0.02     240.0
$#      p1        p2        p3        p4        p5        p6        p7        p8
      78.0       0.0       1.4       0.1       0.0       0.0      64.0       0.0
*PART
$#                                                                         title
boxsolid_65
$#     pid     secid       mid     eosid      hgid      grav    adpopt      tmid
        65         1        65         0         0         0         0         0
*MAT_USER_DEFINED_MATERIAL_MODELS_TITLE
umat43_65
$#     mid        ro        mt       lmc       nhv    iortho     ibulk        ig
        65     0.027        43        16       270         0         3         4
$#   ivect     ifail    itherm    ihyper      ieos      lmca    unused    unused
         0         0         0         1         0         0                    
$#      p1        p2        p3        p4        p5        p6        p7        p8
     70000       0.3  58333.33  26923.08     0.001      42.0      0.02     240.0
$#      p1        p2        p3        p4        p5        p6        p7        p8
      78.0       0.0       1.4       0.1       0.0       0.0      65.0       0.0
*PART
$#                                                                         title
boxsolid_66
$#     pid     secid       mid     eosid      hgid      grav    adpopt      tmid
        66         1        66         0         0         0         0         0
*MAT_USER_DEFINED_MATERIAL_MODELS_TITLE
umat43_66
$#     mid        ro        mt       lmc       nhv    iortho     ibulk        ig
        66     0.027        43        16       270         0         3         4
$#   ivect     ifail    itherm    ihyper      ieos      lmca    unused    unused
         0         0         0         1         0         0                    
$#      p1        p2        p3        p4        p5        p6        p7        p8
     70000       0.3  58333.33  26923.08     0.001      42.0      0.02     240.0
$#      p1        p2        p3        p4        p5        p6        p7        p8
      78.0       0.0       1.4       0.1       0.0       0.0      66.0       0.0
*PART
$#                                                                         title
boxsolid_67
$#     pid     secid       mid     eosid      hgid      grav    adpopt      tmid
        67         1        67         0         0         0         0         0
*MAT_USER_DEFINED_MATERIAL_MODELS_TITLE
umat43_67
$#     mid        ro        mt       lmc       nhv    iortho     ibulk        ig
        67     0.027        43        16       270         0         3         4
$#   ivect     ifail    itherm    ihyper      ieos      lmca    unused    unused
         0         0         0         1         0         0                    
$#      p1        p2        p3        p4        p5        p6        p7        p8
     70000       0.3  58333.33  26923.08     0.001      42.0      0.02     240.0
$#      p1        p2        p3        p4        p5        p6        p7        p8
      78.0       0.0       1.4       0.1       0.0       0.0      67.0       0.0
*PART
$#                                                                         title
boxsolid_68
$#     pid     secid       mid     eosid      hgid      grav    adpopt      tmid
        68         1        68         0         0         0         0         0
*MAT_USER_DEFINED_MATERIAL_MODELS_TITLE
umat43_68
$#     mid        ro        mt       lmc       nhv    iortho     ibulk        ig
        68     0.027        43        16       270         0         3         4
$#   ivect     ifail    itherm    ihyper      ieos      lmca    unused    unused
         0         0         0         1         0         0                    
$#      p1        p2        p3        p4        p5        p6        p7        p8
     70000       0.3  58333.33  26923.08     0.001      42.0      0.02     240.0
$#      p1        p2        p3        p4        p5        p6        p7        p8
      78.0       0.0       1.4       0.1       0.0       0.0      68.0       0.0
*PART
$#                                                                         title
boxsolid_69
$#     pid     secid       mid     eosid      hgid      grav    adpopt      tmid
        69         1        69         0         0         0         0         0
*MAT_USER_DEFINED_MATERIAL_MODELS_TITLE
umat43_69
$#     mid        ro        mt       lmc       nhv    iortho     ibulk        ig
        69     0.027        43        16       270         0         3         4
$#   ivect     ifail    itherm    ihyper      ieos      lmca    unused    unused
         0         0         0         1         0         0                    
$#      p1        p2        p3        p4        p5        p6        p7        p8
     70000       0.3  58333.33  26923.08     0.001      42.0      0.02     240.0
$#      p1        p2        p3        p4        p5        p6        p7        p8
      78.0       0.0       1.4       0.1       0.0       0.0      69.0       0.0
*PART
$#                                                                         title
boxsolid_70
$#     pid     secid       mid     eosid      hgid      grav    adpopt      tmid
        70         1        70         0         0         0         0         0
*MAT_USER_DEFINED_MATERIAL_MODELS_TITLE
umat43_70
$#     mid        ro        mt       lmc       nhv    iortho     ibulk        ig
        70     0.027        43        16       270         0         3         4
$#   ivect     ifail    itherm    ihyper      ieos      lmca    unused    unused
         0         0         0         1         0         0                    
$#      p1        p2        p3        p4        p5        p6        p7        p8
     70000       0.3  58333.33  26923.08     0.001      42.0      0.02     240.0
$#      p1        p2        p3        p4        p5        p6        p7        p8
      78.0       0.0       1.4       0.1       0.0       0.0      70.0       0.0
*PART
$#                                                                         title
boxsolid_71
$#     pid     secid       mid     eosid      hgid      grav    adpopt      tmid
        71         1        71         0         0         0         0         0
*MAT_USER_DEFINED_MATERIAL_MODELS_TITLE
umat43_71
$#     mid        ro        mt       lmc       nhv    iortho     ibulk        ig
        71     0.027        43        16       270         0         3         4
$#   ivect     ifail    itherm    ihyper      ieos      lmca    unused    unused
         0         0         0         1         0         0                    
$#      p1        p2        p3        p4        p5        p6        p7        p8
     70000       0.3  58333.33  26923.08     0.001      42.0      0.02     240.0
$#      p1        p2        p3        p4        p5        p6        p7        p8
      78.0       0.0       1.4       0.1       0.0       0.0      71.0       0.0
*PART
$#                                                                         title
boxsolid_72
$#     pid     secid       mid     eosid      hgid      grav    adpopt      tmid
        72         1        72         0         0         0         0         0
*MAT_USER_DEFINED_MATERIAL_MODELS_TITLE
umat43_72
$#     mid        ro        mt       lmc       nhv    iortho     ibulk        ig
        72     0.027        43        16       270         0         3         4
$#   ivect     ifail    itherm    ihyper      ieos      lmca    unused    unused
         0         0         0         1         0         0                    
$#      p1        p2        p3        p4        p5        p6        p7        p8
     70000       0.3  58333.33  26923.08     0.001      42.0      0.02     240.0
$#      p1        p2        p3        p4        p5        p6        p7        p8
      78.0       0.0       1.4       0.1       0.0       0.0      72.0       0.0
*PART
$#                                                                         title
boxsolid_73
$#     pid     secid       mid     eosid      hgid      grav    adpopt      tmid
        73         1        73         0         0         0         0         0
*MAT_USER_DEFINED_MATERIAL_MODELS_TITLE
umat43_73
$#     mid        ro        mt       lmc       nhv    iortho     ibulk        ig
        73     0.027        43        16       270         0         3         4
$#   ivect     ifail    itherm    ihyper      ieos      lmca    unused    unused
         0         0         0         1         0         0                    
$#      p1        p2        p3        p4        p5        p6        p7        p8
     70000       0.3  58333.33  26923.08     0.001      42.0      0.02     240.0
$#      p1        p2        p3        p4        p5        p6        p7        p8
      78.0       0.0       1.4       0.1       0.0       0.0      73.0       0.0
*PART
$#                                                                         title
boxsolid_74
$#     pid     secid       mid     eosid      hgid      grav    adpopt      tmid
        74         1        74         0         0         0         0         0
*MAT_USER_DEFINED_MATERIAL_MODELS_TITLE
umat43_74
$#     mid        ro        mt       lmc       nhv    iortho     ibulk        ig
        74     0.027        43        16       270         0         3         4
$#   ivect     ifail    itherm    ihyper      ieos      lmca    unused    unused
         0         0         0         1         0         0                    
$#      p1        p2        p3        p4        p5        p6        p7        p8
     70000       0.3  58333.33  26923.08     0.001      42.0      0.02     240.0
$#      p1        p2        p3        p4        p5        p6        p7        p8
      78.0       0.0       1.4       0.1       0.0       0.0      74.0       0.0
*PART
$#                                                                         title
boxsolid_75
$#     pid     secid       mid     eosid      hgid      grav    adpopt      tmid
        75         1        75         0         0         0         0         0
*MAT_USER_DEFINED_MATERIAL_MODELS_TITLE
umat43_75
$#     mid        ro        mt       lmc       nhv    iortho     ibulk        ig
        75     0.027        43        16       270         0         3         4
$#   ivect     ifail    itherm    ihyper      ieos      lmca    unused    unused
         0         0         0         1         0         0                    
$#      p1        p2        p3        p4        p5        p6        p7        p8
     70000       0.3  58333.33  26923.08     0.001      42.0      0.02     240.0
$#      p1        p2        p3        p4        p5        p6        p7        p8
      78.0       0.0       1.4       0.1       0.0       0.0      75.0       0.0
*PART
$#                                                                         title
boxsolid_76
$#     pid     secid       mid     eosid      hgid      grav    adpopt      tmid
        76         1        76         0         0         0         0         0
*MAT_USER_DEFINED_MATERIAL_MODELS_TITLE
umat43_76
$#     mid        ro        mt       lmc       nhv    iortho     ibulk        ig
        76     0.027        43        16       270         0         3         4
$#   ivect     ifail    itherm    ihyper      ieos      lmca    unused    unused
         0         0         0         1         0         0                    
$#      p1        p2        p3        p4        p5        p6        p7        p8
     70000       0.3  58333.33  26923.08     0.001      42.0      0.02     240.0
$#      p1        p2        p3        p4        p5        p6        p7        p8
      78.0       0.0       1.4       0.1       0.0       0.0      76.0       0.0
*PART
$#                                                                         title
boxsolid_77
$#     pid     secid       mid     eosid      hgid      grav    adpopt      tmid
        77         1        77         0         0         0         0         0
*MAT_USER_DEFINED_MATERIAL_MODELS_TITLE
umat43_77
$#     mid        ro        mt       lmc       nhv    iortho     ibulk        ig
        77     0.027        43        16       270         0         3         4
$#   ivect     ifail    itherm    ihyper      ieos      lmca    unused    unused
         0         0         0         1         0         0                    
$#      p1        p2        p3        p4        p5        p6        p7        p8
     70000       0.3  58333.33  26923.08     0.001      42.0      0.02     240.0
$#      p1        p2        p3        p4        p5        p6        p7        p8
      78.0       0.0       1.4       0.1       0.0       0.0      77.0       0.0
*PART
$#                                                                         title
boxsolid_78
$#     pid     secid       mid     eosid      hgid      grav    adpopt      tmid
        78         1        78         0         0         0         0         0
*MAT_USER_DEFINED_MATERIAL_MODELS_TITLE
umat43_78
$#     mid        ro        mt       lmc       nhv    iortho     ibulk        ig
        78     0.027        43        16       270         0         3         4
$#   ivect     ifail    itherm    ihyper      ieos      lmca    unused    unused
         0         0         0         1         0         0                    
$#      p1        p2        p3        p4        p5        p6        p7        p8
     70000       0.3  58333.33  26923.08     0.001      42.0      0.02     240.0
$#      p1        p2        p3        p4        p5        p6        p7        p8
      78.0       0.0       1.4       0.1       0.0       0.0      78.0       0.0
*PART
$#                                                                         title
boxsolid_79
$#     pid     secid       mid     eosid      hgid      grav    adpopt      tmid
        79         1        79         0         0         0         0         0
*MAT_USER_DEFINED_MATERIAL_MODELS_TITLE
umat43_79
$#     mid        ro        mt       lmc       nhv    iortho     ibulk        ig
        79     0.027        43        16       270         0         3         4
$#   ivect     ifail    itherm    ihyper      ieos      lmca    unused    unused
         0         0         0         1         0         0                    
$#      p1        p2        p3        p4        p5        p6        p7        p8
     70000       0.3  58333.33  26923.08     0.001      42.0      0.02     240.0
$#      p1        p2        p3        p4        p5        p6        p7        p8
      78.0       0.0       1.4       0.1       0.0       0.0      79.0       0.0
*PART
$#                                                                         title
boxsolid_80
$#     pid     secid       mid     eosid      hgid      grav    adpopt      tmid
        80         1        80         0         0         0         0         0
*MAT_USER_DEFINED_MATERIAL_MODELS_TITLE
umat43_80
$#     mid        ro        mt       lmc       nhv    iortho     ibulk        ig
        80     0.027        43        16       270         0         3         4
$#   ivect     ifail    itherm    ihyper      ieos      lmca    unused    unused
         0         0         0         1         0         0                    
$#      p1        p2        p3        p4        p5        p6        p7        p8
     70000       0.3  58333.33  26923.08     0.001      42.0      0.02     240.0
$#      p1        p2        p3        p4        p5        p6        p7        p8
      78.0       0.0       1.4       0.1       0.0       0.0      80.0       0.0
*PART
$#                                                                         title
boxsolid_81
$#     pid     secid       mid     eosid      hgid      grav    adpopt      tmid
        81         1        81         0         0         0         0         0
*MAT_USER_DEFINED_MATERIAL_MODELS_TITLE
umat43_81
$#     mid        ro        mt       lmc       nhv    iortho     ibulk        ig
        81     0.027        43        16       270         0         3         4
$#   ivect     ifail    itherm    ihyper      ieos      lmca    unused    unused
         0         0         0         1         0         0                    
$#      p1        p2        p3        p4        p5        p6        p7        p8
     70000       0.3  58333.33  26923.08     0.001      42.0      0.02     240.0
$#      p1        p2        p3        p4        p5        p6        p7        p8
      78.0       0.0       1.4       0.1       0.0       0.0      81.0       0.0
*PART
$#                                                                         title
boxsolid_82
$#     pid     secid       mid     eosid      hgid      grav    adpopt      tmid
        82         1        82         0         0         0         0         0
*MAT_USER_DEFINED_MATERIAL_MODELS_TITLE
umat43_82
$#     mid        ro        mt       lmc       nhv    iortho     ibulk        ig
        82     0.027        43        16       270         0         3         4
$#   ivect     ifail    itherm    ihyper      ieos      lmca    unused    unused
         0         0         0         1         0         0                    
$#      p1        p2        p3        p4        p5        p6        p7        p8
     70000       0.3  58333.33  26923.08     0.001      42.0      0.02     240.0
$#      p1        p2        p3        p4        p5        p6        p7        p8
      78.0       0.0       1.4       0.1       0.0       0.0      82.0       0.0
*PART
$#                                                                         title
boxsolid_83
$#     pid     secid       mid     eosid      hgid      grav    adpopt      tmid
        83         1        83         0         0         0         0         0
*MAT_USER_DEFINED_MATERIAL_MODELS_TITLE
umat43_83
$#     mid        ro        mt       lmc       nhv    iortho     ibulk        ig
        83     0.027        43        16       270         0         3         4
$#   ivect     ifail    itherm    ihyper      ieos      lmca    unused    unused
         0         0         0         1         0         0                    
$#      p1        p2        p3        p4        p5        p6        p7        p8
     70000       0.3  58333.33  26923.08     0.001      42.0      0.02     240.0
$#      p1        p2        p3        p4        p5        p6        p7        p8
      78.0       0.0       1.4       0.1       0.0       0.0      83.0       0.0
*PART
$#                                                                         title
boxsolid_84
$#     pid     secid       mid     eosid      hgid      grav    adpopt      tmid
        84         1        84         0         0         0         0         0
*MAT_USER_DEFINED_MATERIAL_MODELS_TITLE
umat43_84
$#     mid        ro        mt       lmc       nhv    iortho     ibulk        ig
        84     0.027        43        16       270         0         3         4
$#   ivect     ifail    itherm    ihyper      ieos      lmca    unused    unused
         0         0         0         1         0         0                    
$#      p1        p2        p3        p4        p5        p6        p7        p8
     70000       0.3  58333.33  26923.08     0.001      42.0      0.02     240.0
$#      p1        p2        p3        p4        p5        p6        p7        p8
      78.0       0.0       1.4       0.1       0.0       0.0      84.0       0.0
*PART
$#                                                                         title
boxsolid_85
$#     pid     secid       mid     eosid      hgid      grav    adpopt      tmid
        85         1        85         0         0         0         0         0
*MAT_USER_DEFINED_MATERIAL_MODELS_TITLE
umat43_85
$#     mid        ro        mt       lmc       nhv    iortho     ibulk        ig
        85     0.027        43        16       270         0         3         4
$#   ivect     ifail    itherm    ihyper      ieos      lmca    unused    unused
         0         0         0         1         0         0                    
$#      p1        p2        p3        p4        p5        p6        p7        p8
     70000       0.3  58333.33  26923.08     0.001      42.0      0.02     240.0
$#      p1        p2        p3        p4        p5        p6        p7        p8
      78.0       0.0       1.4       0.1       0.0       0.0      85.0       0.0
*PART
$#                                                                         title
boxsolid_86
$#     pid     secid       mid     eosid      hgid      grav    adpopt      tmid
        86         1        86         0         0         0         0         0
*MAT_USER_DEFINED_MATERIAL_MODELS_TITLE
umat43_86
$#     mid        ro        mt       lmc       nhv    iortho     ibulk        ig
        86     0.027        43        16       270         0         3         4
$#   ivect     ifail    itherm    ihyper      ieos      lmca    unused    unused
         0         0         0         1         0         0                    
$#      p1        p2        p3        p4        p5        p6        p7        p8
     70000       0.3  58333.33  26923.08     0.001      42.0      0.02     240.0
$#      p1        p2        p3        p4        p5        p6        p7        p8
      78.0       0.0       1.4       0.1       0.0       0.0      86.0       0.0
*ELEMENT_SOLID
$#   eid     pid      n1      n2      n3      n4      n5      n6      n7      n8
       1       1     318     317    2528    2527    1425    1424    7142    7141
       2       1     317      15     313    2528    1424     157    1420    7142
       3       1    2527    2528     313     315    7141    7142    1420    1422
       4       1     315     314    2529    2527    1422    1421    7143    7141
       5       1     314      32     316    2529    1421     158    1423    7143
       6       1    2527    2529     316     318    7141    7143    1423    1425
       7       2     322     320    2531     319    1429    1427    7145    1426
       8       2     320     323    2530    2531    1427    1430    7144    7145
       9       2    2531    2530     326     325    7145    7144    1433    1432
      10       2     319    2531     325      17    1426    7145    1432     159
      11       2     326    2530    2532     324    1433    7144    7146    1431
      12       2    2530     323     321    2532    7144    1430    1428    7146
      13       2     324    2532     321      56    1431    7146    1428     160
      14       3      59     335    2534    2533     163    1442    7148    7147
      15       3     335       2     327    2534    1442     161    1434    7148
      16       3    2534     327     130     328    7148    1434     162    1435
      17       3    2533    2534     328     332    7147    7148    1435    1439
      18       3     332     329    2535    2533    1439    1436    7149    7147
      19       3     329     333     330    2535    1436    1440    1437    7149
      20       3    2535     330     334     331    7149    1437    1441    1438
$ ... 5747 like lines cut
*NODE
$#   nid               x               y               z      tc      rc  
       1         50.0121         41.0121             0.0       0       0
       2         50.0121       -0.212132             0.0       0       0
       3            1.65           24.15             0.0       0       0
       4            1.35           23.55             0.0       0       0
       5       -0.212132           21.15             0.0       0       0
       6            8.25           12.45             0.0       0       0
       7            7.35           18.15             0.0       0       0
       8            5.85           32.85             0.0       0       0
       9       -0.212132         41.0121             0.0       0       0
      10            1.95           38.85             0.0       0       0
      11           41.85           39.75             0.0       0       0
      12           35.85           40.35             0.0       0       0
      13           37.65         41.0121             0.0       0       0
      14       -0.212132            6.75             0.0       0       0
      15           17.55       -0.212132             0.0       0       0
      16           19.05       -0.212132             0.0       0       0
      17           11.55       -0.212132             0.0       0       0
      18           13.35            4.95             0.0       0       0
      19           36.15           27.45             0.0       0       0
      20            2.25           21.15             0.0       0       0
$ ... 11734 like lines cut
