*PART
$#                                                                         title
boxsolid_1
$#     pid     secid       mid     eosid      hgid      grav    adpopt      tmid
         1         1         1         0         0         0         0         0
*MAT_USER_DEFINED_MATERIAL_MODELS_TITLE
umat43_1
$#     mid        ro        mt       lmc       nhv    iortho     ibulk        ig
         1     0.027        43        16       270         0         3         4
$#   ivect     ifail    itherm    ihyper      ieos      lmca    unused    unused
         0         0         0         1         0         0                    
$#      p1        p2        p3        p4        p5        p6        p7        p8
     70000       0.3  58333.33  26923.08     0.001      42.0      0.02     240.0
$#      p1        p2        p3        p4        p5        p6        p7        p8
      78.0       0.0       1.4       0.1       0.0       0.0       1.0       0.0
*PART
$#                                                                         title
boxsolid_2
$#     pid     secid       mid     eosid      hgid      grav    adpopt      tmid
         2         1         2         0         0         0         0         0
*MAT_USER_DEFINED_MATERIAL_MODELS_TITLE
umat43_2
$#     mid        ro        mt       lmc       nhv    iortho     ibulk        ig
         2     0.027        43        16       270         0         3         4
$#   ivect     ifail    itherm    ihyper      ieos      lmca    unused    unused
         0         0         0         1         0         0                    
$#      p1        p2        p3        p4        p5        p6        p7        p8
     70000       0.3  58333.33  26923.08     0.001      42.0      0.02     240.0
$#      p1        p2        p3        p4        p5        p6        p7        p8
      78.0       0.0       1.4       0.1       0.0       0.0       2.0       0.0
*PART
$#                                                                         title
boxsolid_3
$#     pid     secid       mid     eosid      hgid      grav    adpopt      tmid
         3         1         3         0         0         0         0         0
*MAT_USER_DEFINED_MATERIAL_MODELS_TITLE
umat43_3
$#     mid        ro        mt       lmc       nhv    iortho     ibulk        ig
         3     0.027        43        16       270         0         3         4
$#   ivect     ifail    itherm    ihyper      ieos      lmca    unused    unused
         0         0         0         1         0         0                    
$#      p1        p2        p3        p4        p5        p6        p7        p8
     70000       0.3  58333.33  26923.08     0.001      42.0      0.02     240.0
$#      p1        p2        p3        p4        p5        p6        p7        p8
      78.0       0.0       1.4       0.1       0.0       0.0       3.0       0.0
*ELEMENT_SOLID
$#   eid     pid      n1      n2      n3      n4      n5      n6      n7      n8
       1       1     859    1167    1170    1169    4894    5202    5205    5204
       2       1    1167     152     145    1170    5202     570     563    5205
       3       1    1170     145     153    1168    5205     563     571    5203
       4       1    1169    1170    1168     885    5204    5205    5203    4920
       5       1     162    1171    1174     136     580    5206    5209     554
       6       1    1171     879    1172    1174    5206    4914    5207    5209
       7       1    1174    1172     867    1173    5209    5207    4902    5208
       8       1     136    1174    1173     161     554    5209    5208     579
       9       1     885    1168    1177    1176    4920    5203    5212    5211
      10       1    1168     153     144    1177    5203     571     562    5212
      11       1    1177     144     154    1175    5212     562     572    5210
      12       1    1176    1177    1175     892    5211    5212    5210    4927
      13       1     854    1178    1181    1180    4889    5213    5216    5215
      14       1    1178     156     141    1181    5213     574     559    5216
      15       1    1181     141     157    1179    5216     559     575    5214
      16       1    1180    1181    1179     893    5215    5216    5214    4928
      17       1      63      39    1185    1184     481     457    5220    5219
      18       1      39      64    1182    1185     457     482    5217    5220
      19       1    1185    1182     869    1183    5220    5217    4904    5218
      20       1    1184    1185    1183     881    5219    5220    5218    4916
$ ... 4306 like lines cut
*NODE
$#   nid               x               y               z      tc      rc  
       1           46.35       -0.212132             0.0       0       0
       2         43.8879         2.01213             0.0       0       0
       3         43.8879       -0.212132             0.0       0       0
       4         48.2121         2.01213             0.0       0       0
       5         48.2121       -0.212132             0.0       0       0
       6         43.8879            1.35             0.0       0       0
       7         48.2121            0.15             0.0       0       0
       8         48.2121            1.35             0.0       0       0
       9         43.8879       -0.212132             0.1       0       0
      10           46.35       -0.212132             0.1       0       0
      11         43.8879            1.35             0.1       0       0
      12         48.2121            0.15             0.1       0       0
      13         48.2121            1.35             0.1       0       0
      14         48.2121       -0.212132             0.1       0       0
      15         48.2121         2.01213             0.1       0       0
      16         43.8879         2.01213             0.1       0       0
      17         45.2174       -0.212132             0.0       0       0
      18         44.0356       -0.212132             0.0       0       0
      19         44.1341       -0.212132             0.0       0       0
      20         44.2326       -0.212132             0.0       0       0
$ ... 8902 like lines cut
