*PART
$#                                                                         title
boxsolid_1
$#     pid     secid       mid     eosid      hgid      grav    adpopt      tmid
         1         1         1         0         0         0         0         0
*MAT_USER_DEFINED_MATERIAL_MODELS_TITLE
umat43_1
$#     mid        ro        mt       lmc       nhv    iortho     ibulk        ig
         1     0.027        43        16       270         0         3         4
$#   ivect     ifail    itherm    ihyper      ieos      lmca    unused    unused
         0         0         0         1         0         0                    
$#      p1        p2        p3        p4        p5        p6        p7        p8
     70000       0.3  58333.33  26923.08     0.001      42.0      0.02     240.0
$#      p1        p2        p3        p4        p5        p6        p7        p8
      78.0       0.0       1.4       0.1       0.0       0.0       1.0       0.0
*PART
$#                                                                         title
boxsolid_2
$#     pid     secid       mid     eosid      hgid      grav    adpopt      tmid
         2         1         2         0         0         0         0         0
*MAT_USER_DEFINED_MATERIAL_MODELS_TITLE
umat43_2
$#     mid        ro        mt       lmc       nhv    iortho     ibulk        ig
         2     0.027        43        16       270         0         3         4
$#   ivect     ifail    itherm    ihyper      ieos      lmca    unused    unused
         0         0         0         1         0         0                    
$#      p1        p2        p3        p4        p5        p6        p7        p8
     70000       0.3  58333.33  26923.08     0.001      42.0      0.02     240.0
$#      p1        p2        p3        p4        p5        p6        p7        p8
      78.0       0.0       1.4       0.1       0.0       0.0       2.0       0.0
*PART
$#                                                                         title
boxsolid_3
$#     pid     secid       mid     eosid      hgid      grav    adpopt      tmid
         3         1         3         0         0         0         0         0
*MAT_USER_DEFINED_MATERIAL_MODELS_TITLE
umat43_3
$#     mid        ro        mt       lmc       nhv    iortho     ibulk        ig
         3     0.027        43        16       270         0         3         4
$#   ivect     ifail    itherm    ihyper      ieos      lmca    unused    unused
         0         0         0         1         0         0                    
$#      p1        p2        p3        p4        p5        p6        p7        p8
     70000       0.3  58333.33  26923.08     0.001      42.0      0.02     240.0
$#      p1        p2        p3        p4        p5        p6        p7        p8
      78.0       0.0       1.4       0.1       0.0       0.0       3.0       0.0
*ELEMENT_SOLID
$#   eid     pid      n1      n2      n3      n4      n5      n6      n7      n8
       1       1      63      38      37      62    1294    1269    1268    1293
    1162       1    1294    1269    1268    1293    2525    2500    2499    2524
    3484       1    2525    2500    2499    2524    3756    3731    3730    3755
    6967       1    3756    3731    3730    3755    4987    4962    4961    4986
   11611       1    4987    4962    4961    4986    6218    6193    6192    6217
       2       1      38       7       6      37    1269    1238    1237    1268
    1163       1    1269    1238    1237    1268    2500    2469    2468    2499
    3485       1    2500    2469    2468    2499    3731    3700    3699    3730
    6968       1    3731    3700    3699    3730    4962    4931    4930    4961
   11612       1    4962    4931    4930    4961    6193    6162    6161    6192
       3       1      37       6       5      34    1268    1237    1236    1265
    1164       1    1268    1237    1236    1265    2499    2468    2467    2496
    3486       1    2499    2468    2467    2496    3730    3699    3698    3727
    6969       1    3730    3699    3698    3727    4961    4930    4929    4958
   11613       1    4961    4930    4929    4958    6192    6161    6160    6189
       4       1      62      37      34      59    1293    1268    1265    1290
    1165       1    1293    1268    1265    1290    2524    2499    2496    2521
    3487       1    2524    2499    2496    2521    3755    3730    3727    3752
    6970       1    3755    3730    3727    3752    4986    4961    4958    4983
   11614       1    4986    4961    4958    4983    6217    6192    6189    6214
$ ... 5785 like lines cut
*NODE
$#   nid               x               y               z      tc      rc  
       1         43.8879      -0.0168655             0.0       0       0
       2         43.8879       -0.114499             0.0       0       0
       3         43.8879       -0.212132             0.0       0       0
       4         43.8879       0.0807678             0.0       0       0
       5         43.8879        0.178401             0.0       0       0
       6         43.8879        0.276034             0.0       0       0
       7         43.8879        0.373668             0.0       0       0
       8         43.8879        0.471301             0.0       0       0
       9         43.8879        0.568934             0.0       0       0
      10         43.8879        0.666567             0.0       0       0
      11         43.8879        0.764201             0.0       0       0
      12         43.8879        0.861834             0.0       0       0
      13         43.8879        0.959467             0.0       0       0
      14         43.8879          1.0571             0.0       0       0
      15         43.8879         1.15473             0.0       0       0
      16         43.8879         1.25237             0.0       0       0
      17         43.8879            1.35             0.0       0       0
      18         43.8879         1.43277             0.0       0       0
      19         43.8879         1.51553             0.0       0       0
      20         43.8879          1.5983             0.0       0       0
$ ... 7366 like lines cut
