*PART
$#                                                                         title
boxsolid_1
$#     pid     secid       mid     eosid      hgid      grav    adpopt      tmid
         1         1         1         0         0         0         0         0
*MAT_USER_DEFINED_MATERIAL_MODELS_TITLE
umat43_1
$#     mid        ro        mt       lmc       nhv    iortho     ibulk        ig
         1     0.027        43        16       270         0         3         4
$#   ivect     ifail    itherm    ihyper      ieos      lmca    unused    unused
         0         0         0         1         0         0                    
$#      p1        p2        p3        p4        p5        p6        p7        p8
     70000       0.3  58333.33  26923.08     0.001      42.0      0.02     240.0
$#      p1        p2        p3        p4        p5        p6        p7        p8
      78.0       0.0       1.4       0.1       0.0       0.0       1.0       0.0
*PART
$#                                                                         title
boxsolid_2
$#     pid     secid       mid     eosid      hgid      grav    adpopt      tmid
         2         1         2         0         0         0         0         0
*MAT_USER_DEFINED_MATERIAL_MODELS_TITLE
umat43_2
$#     mid        ro        mt       lmc       nhv    iortho     ibulk        ig
         2     0.027        43        16       270         0         3         4
$#   ivect     ifail    itherm    ihyper      ieos      lmca    unused    unused
         0         0         0         1         0         0                    
$#      p1        p2        p3        p4        p5        p6        p7        p8
     70000       0.3  58333.33  26923.08     0.001      42.0      0.02     240.0
$#      p1        p2        p3        p4        p5        p6        p7        p8
      78.0       0.0       1.4       0.1       0.0       0.0       2.0       0.0
*PART
$#                                                                         title
boxsolid_3
$#     pid     secid       mid     eosid      hgid      grav    adpopt      tmid
         3         1         3         0         0         0         0         0
*MAT_USER_DEFINED_MATERIAL_MODELS_TITLE
umat43_3
$#     mid        ro        mt       lmc       nhv    iortho     ibulk        ig
         3     0.027        43        16       270         0         3         4
$#   ivect     ifail    itherm    ihyper      ieos      lmca    unused    unused
         0         0         0         1         0         0                    
$#      p1        p2        p3        p4        p5        p6        p7        p8
     70000       0.3  58333.33  26923.08     0.001      42.0      0.02     240.0
$#      p1        p2        p3        p4        p5        p6        p7        p8
      78.0       0.0       1.4       0.1       0.0       0.0       3.0       0.0
*ELEMENT_SOLID
$#   eid     pid      n1      n2      n3      n4      n5      n6      n7      n8
       1       1      15       8      11      18     120     113     116     123
      88       1     120     113     116     123     225     218     221     228
     262       1     225     218     221     228     330     323     326     333
     523       1     330     323     326     333     435     428     431     438
     871       1     435     428     431     438     540     533     536     543
       2       1       8       3       2      11     113     108     107     116
      89       1     113     108     107     116     218     213     212     221
     263       1     218     213     212     221     323     318     317     326
     524       1     323     318     317     326     428     423     422     431
     872       1     428     423     422     431     533     528     527     536
       3       1      11       2       1      13     116     107     106     118
      90       1     116     107     106     118     221     212     211     223
     264       1     221     212     211     223     326     317     316     328
     525       1     326     317     316     328     431     422     421     433
     873       1     431     422     421     433     536     527     526     538
       4       1      18      11      13      20     123     116     118     125
      91       1     123     116     118     125     228     221     223     230
     265       1     228     221     223     230     333     326     328     335
     526       1     333     326     328     335     438     431     433     440
     874       1     438     431     433     440     543     536     538     545
$ ... 415 like lines cut
*NODE
$#   nid               x               y               z      tc      rc  
       1         43.8879       -0.212132             0.0       0       0
       2         43.8879        0.178401             0.0       0       0
       3         43.8879        0.568934             0.0       0       0
       4         43.8879        0.959467             0.0       0       0
       5         43.8879            1.35             0.0       0       0
       6         43.8879         1.68107             0.0       0       0
       7         43.8879         2.01213             0.0       0       0
       8         44.2269        0.528452             0.0       0       0
       9         44.2341        0.878178             0.0       0       0
      10         44.2412          1.2279             0.0       0       0
      11         44.2626         0.15816             0.0       0       0
      12         44.2808         1.62002             0.0       0       0
      13         44.2982       -0.212132             0.0       0       0
      14         44.3203         2.01213             0.0       0       0
      15         44.5658         0.48797             0.0       0       0
      16         44.5802        0.796889             0.0       0       0
      17         44.5946         1.10581             0.0       0       0
      18         44.6372        0.137919             0.0       0       0
      19         44.6737         1.55897             0.0       0       0
      20         44.7086       -0.212132             0.0       0       0
$ ... 610 like lines cut
